version 3
run Scenario1_OneEV-0-20260308-23:26:16-11022
attr configname Scenario1_OneEV
attr datetime 20260308-23:26:16
attr datetimef 20260308-232616
attr experiment Scenario1_OneEV
attr inifile omnetpp.ini
attr iterationvars $0=42
attr iterationvarsd 42
attr iterationvarsf 42-
attr measurement $0=42
attr network ned.CityNetwork
attr processid 11022
attr repetition 0
attr replication #0
attr resultdir results
attr runnumber 0
attr seedset 42
config seed-set 42
config *.numEVs 1
config *.ev[0].evId 0
config *.ev[0].severity 2
config *.ev[0].startPos -299m
config *.ev[0].destinationPos 300m
config *.ev[0].speed 16.67mps
config *.ev[0].approach 3
config *.ev[0].startTime 300s
config network ned.CityNetwork
config sim-time-limit 1800s
config ned-path ned
config *.numIntersections 4
config *.controller.method "\"SDTLP\""
config *.controller.L 4.5m
config *.controller.MG 2.5m
config *.controller.roadSegmentLength 300m
config **.inter[*].stabilityExtra 5s
config *.inter[*].arrivalMean 10s
config *.inter[*].normalSpeed 9.72
config *.inter[*].queueMax 50

scalar CityNetwork.ev[0] ART_seconds 49
scalar CityNetwork.ev[0] EV_stopped_seconds 12
par CityNetwork.controller typename "\"ned.Controller\""
par CityNetwork.controller numIntersections 4
par CityNetwork.controller numApproaches 4
par CityNetwork.controller tClear 3s
attr unit s
par CityNetwork.controller tickPeriod 0.5s
attr unit s
par CityNetwork.controller L 4.5m
attr unit m
par CityNetwork.controller MG 2.5m
attr unit m
par CityNetwork.controller regularSpeed 9.72mps
attr unit mps
par CityNetwork.controller r 3s
attr unit s
par CityNetwork.controller roadSegmentLength 300m
attr unit m
par CityNetwork.controller recoveryDuration 5s
attr unit s
par CityNetwork.controller method "\"SDTLP\""
par CityNetwork.controller TDthreshold 0.7
par CityNetwork.controller Dthreshold 150m
attr unit m
par CityNetwork.inter[0] typename "\"ned.Intersection\""
par CityNetwork.inter[0] warmupTime 300s
attr unit s
par CityNetwork.inter[0] intersectionId 0
par CityNetwork.inter[0] numApproaches 4
par CityNetwork.inter[0] method "\"SDTLP_MULTI\""
par CityNetwork.inter[0] greenTime 25s
attr unit s
par CityNetwork.inter[0] yellowTime 3s
attr unit s
par CityNetwork.inter[0] redTime 84s
attr unit s
par CityNetwork.inter[0] r 3s
attr unit s
par CityNetwork.inter[0] reportPeriod 1s
attr unit s
par CityNetwork.inter[0] arrivalMean 10s
attr unit s
par CityNetwork.inter[0] serviceRate 0.5
par CityNetwork.inter[0] queueMax 43
par CityNetwork.inter[0] normalSpeed 9.72mps
attr unit mps
par CityNetwork.inter[0] stabilityExtra 5s
attr unit s
scalar CityNetwork.inter[0] AIWT_seconds 48.5
scalar CityNetwork.inter[0] AWT_seconds 4.3333333333333
scalar CityNetwork.inter[0] AIWT_A_seconds 9.2380952380952
scalar CityNetwork.inter[0] AWT_A_seconds 3.25
scalar CityNetwork.inter[0] AIWT_num_waitingImposedSec 194
scalar CityNetwork.inter[0] AIWT_den_totalArrivalsCross 4
scalar CityNetwork.inter[0] AWT_num_waitingRescueRouteSec 13
scalar CityNetwork.inter[0] AWT_den_servedRescueVeh 3
scalar CityNetwork.inter[0] AIWT_A_den_initialCrossSum 17
scalar CityNetwork.inter[0] AIWT_A_den_arrivalsCrossSum 4
scalar CityNetwork.inter[0] AIWT_A_den_total 21
scalar CityNetwork.inter[0] AWT_A_den_initialRescueSum 2
scalar CityNetwork.inter[0] AWT_A_den_arrivalsRescueSum 2
scalar CityNetwork.inter[0] AWT_A_den_total 4
par CityNetwork.inter[1] typename "\"ned.Intersection\""
par CityNetwork.inter[1] warmupTime 300s
attr unit s
par CityNetwork.inter[1] intersectionId 1
par CityNetwork.inter[1] numApproaches 4
par CityNetwork.inter[1] method "\"SDTLP_MULTI\""
par CityNetwork.inter[1] greenTime 25s
attr unit s
par CityNetwork.inter[1] yellowTime 3s
attr unit s
par CityNetwork.inter[1] redTime 84s
attr unit s
par CityNetwork.inter[1] r 3s
attr unit s
par CityNetwork.inter[1] reportPeriod 1s
attr unit s
par CityNetwork.inter[1] arrivalMean 10s
attr unit s
par CityNetwork.inter[1] serviceRate 0.5
par CityNetwork.inter[1] queueMax 43
par CityNetwork.inter[1] normalSpeed 9.72mps
attr unit mps
par CityNetwork.inter[1] stabilityExtra 5s
attr unit s
scalar CityNetwork.inter[1] AIWT_seconds 52.666666666667
scalar CityNetwork.inter[1] AWT_seconds 3.625
scalar CityNetwork.inter[1] AIWT_A_seconds 9.875
scalar CityNetwork.inter[1] AWT_A_seconds 3.625
scalar CityNetwork.inter[1] AIWT_num_waitingImposedSec 158
scalar CityNetwork.inter[1] AIWT_den_totalArrivalsCross 3
scalar CityNetwork.inter[1] AWT_num_waitingRescueRouteSec 29
scalar CityNetwork.inter[1] AWT_den_servedRescueVeh 8
scalar CityNetwork.inter[1] AIWT_A_den_initialCrossSum 13
scalar CityNetwork.inter[1] AIWT_A_den_arrivalsCrossSum 3
scalar CityNetwork.inter[1] AIWT_A_den_total 16
scalar CityNetwork.inter[1] AWT_A_den_initialRescueSum 6
scalar CityNetwork.inter[1] AWT_A_den_arrivalsRescueSum 2
scalar CityNetwork.inter[1] AWT_A_den_total 8
par CityNetwork.inter[2] typename "\"ned.Intersection\""
par CityNetwork.inter[2] warmupTime 300s
attr unit s
par CityNetwork.inter[2] intersectionId 2
par CityNetwork.inter[2] numApproaches 4
par CityNetwork.inter[2] method "\"SDTLP_MULTI\""
par CityNetwork.inter[2] greenTime 25s
attr unit s
par CityNetwork.inter[2] yellowTime 3s
attr unit s
par CityNetwork.inter[2] redTime 84s
attr unit s
par CityNetwork.inter[2] r 3s
attr unit s
par CityNetwork.inter[2] reportPeriod 1s
attr unit s
par CityNetwork.inter[2] arrivalMean 10s
attr unit s
par CityNetwork.inter[2] serviceRate 0.5
par CityNetwork.inter[2] queueMax 43
par CityNetwork.inter[2] normalSpeed 9.72mps
attr unit mps
par CityNetwork.inter[2] stabilityExtra 5s
attr unit s
scalar CityNetwork.inter[2] AIWT_seconds 0
scalar CityNetwork.inter[2] AWT_seconds 0
scalar CityNetwork.inter[2] AIWT_A_seconds 0
scalar CityNetwork.inter[2] AWT_A_seconds 0
scalar CityNetwork.inter[2] AIWT_num_waitingImposedSec 0
scalar CityNetwork.inter[2] AIWT_den_totalArrivalsCross 0
scalar CityNetwork.inter[2] AWT_num_waitingRescueRouteSec 0
scalar CityNetwork.inter[2] AWT_den_servedRescueVeh 0
scalar CityNetwork.inter[2] AIWT_A_den_initialCrossSum 0
scalar CityNetwork.inter[2] AIWT_A_den_arrivalsCrossSum 0
scalar CityNetwork.inter[2] AIWT_A_den_total 0
scalar CityNetwork.inter[2] AWT_A_den_initialRescueSum 0
scalar CityNetwork.inter[2] AWT_A_den_arrivalsRescueSum 0
scalar CityNetwork.inter[2] AWT_A_den_total 0
par CityNetwork.inter[3] typename "\"ned.Intersection\""
par CityNetwork.inter[3] warmupTime 300s
attr unit s
par CityNetwork.inter[3] intersectionId 3
par CityNetwork.inter[3] numApproaches 4
par CityNetwork.inter[3] method "\"SDTLP_MULTI\""
par CityNetwork.inter[3] greenTime 25s
attr unit s
par CityNetwork.inter[3] yellowTime 3s
attr unit s
par CityNetwork.inter[3] redTime 84s
attr unit s
par CityNetwork.inter[3] r 3s
attr unit s
par CityNetwork.inter[3] reportPeriod 1s
attr unit s
par CityNetwork.inter[3] arrivalMean 10s
attr unit s
par CityNetwork.inter[3] serviceRate 0.5
par CityNetwork.inter[3] queueMax 43
par CityNetwork.inter[3] normalSpeed 9.72mps
attr unit mps
par CityNetwork.inter[3] stabilityExtra 5s
attr unit s
scalar CityNetwork.inter[3] AIWT_seconds 0
scalar CityNetwork.inter[3] AWT_seconds 0
scalar CityNetwork.inter[3] AIWT_A_seconds 0
scalar CityNetwork.inter[3] AWT_A_seconds 0
scalar CityNetwork.inter[3] AIWT_num_waitingImposedSec 0
scalar CityNetwork.inter[3] AIWT_den_totalArrivalsCross 0
scalar CityNetwork.inter[3] AWT_num_waitingRescueRouteSec 0
scalar CityNetwork.inter[3] AWT_den_servedRescueVeh 0
scalar CityNetwork.inter[3] AIWT_A_den_initialCrossSum 0
scalar CityNetwork.inter[3] AIWT_A_den_arrivalsCrossSum 0
scalar CityNetwork.inter[3] AIWT_A_den_total 0
scalar CityNetwork.inter[3] AWT_A_den_initialRescueSum 0
scalar CityNetwork.inter[3] AWT_A_den_arrivalsRescueSum 0
scalar CityNetwork.inter[3] AWT_A_den_total 0
par CityNetwork.rsu[0] typename "\"ned.RSU\""
par CityNetwork.rsu[0] rsuId 0
par CityNetwork.rsu[1] typename "\"ned.RSU\""
par CityNetwork.rsu[1] rsuId 1
par CityNetwork.rsu[2] typename "\"ned.RSU\""
par CityNetwork.rsu[2] rsuId 2
par CityNetwork.rsu[3] typename "\"ned.RSU\""
par CityNetwork.rsu[3] rsuId 3
par CityNetwork.ev[0] typename "\"ned.EmergencyVehicle\""
par CityNetwork.ev[0] evId 0
par CityNetwork.ev[0] severity 2
par CityNetwork.ev[0] startPos -299m
attr unit m
par CityNetwork.ev[0] destinationPos 300m
attr unit m
par CityNetwork.ev[0] approach 3
par CityNetwork.ev[0] startTime 300s
attr unit s
par CityNetwork.ev[0] speed 16.67mps
attr unit mps
scalar CityNetwork.ev[0] EV_finalPos 307.51
scalar CityNetwork.ev[0] EV_waitingForGo 0
par CityNetwork typename "\"ned.CityNetwork\""
par CityNetwork numIntersections 4
par CityNetwork numEVs 1

